     195
 i =      200, E =     -1141.1129472603
O	-0.40632788	1.25043206	-0.19472357
C	0.00000000	0.00000000	0.00000000
H	-0.69125308	1.68323374	0.72105814
O	0.56240804	-0.51182065	-1.09951133
H	1.05703640	-1.36167995	-0.86936312
O	-0.11102946	-0.63004939	1.07164162
O	5.47637564	6.00253971	-0.69706839
H	4.96837597	5.30314618	-1.19651271
H	-5.96819702	5.95497945	-1.00943835
O	4.63814320	3.08793038	1.74079707
H	4.76689076	2.31329395	2.38077261
H	5.34587473	2.91846424	1.06218017
O	-4.35601343	5.89706404	6.00246834
H	-3.75281424	-5.76481721	-6.17981769
H	-3.80671153	5.10916009	-6.15996908
O	-0.23556806	6.12780639	-6.17933596
H	-0.84246077	-5.49564937	-6.20603599
H	0.61400770	-5.97944702	-5.77761511
O	5.17468038	-3.21205035	-2.53487988
H	4.63700230	-2.40846236	-2.76088370
H	5.39251835	-3.09683860	-1.58467171
O	-4.19027860	-4.30243851	0.24198602
H	-4.90951521	-3.64191803	0.03562876
H	-3.38023478	-3.70004750	0.33966639
O	-1.37579765	-1.25483299	6.17511527
H	-0.69341041	-1.95419287	-6.04798684
H	-1.21299371	-0.94307646	5.23577393
O	3.85781752	3.89601824	-1.51860394
H	4.38388065	3.27697212	-0.93573752
H	3.01366696	4.22213978	-1.07711481
O	4.85392826	0.71578216	2.99212305
H	4.19565483	0.18452866	2.44616312
H	4.49998392	0.64743750	3.92724510
O	-3.50352345	0.13429912	0.53287396
H	-4.19708667	-0.08887487	1.21899779
H	-2.95244583	0.81247414	0.97987094
O	3.92740967	-5.49822410	-3.25072526
H	4.53595191	-4.70040936	-3.17465603
H	4.53500415	6.14009450	-3.44589195
O	-6.01484449	-2.18153893	-0.21001795
H	-5.94791582	-1.46869360	-0.90668332
H	-5.84157157	-1.69178071	0.65779910
O	5.46276138	4.53084936	-3.77527080
H	4.75927246	4.03504503	-3.28736206
H	5.22341485	4.41233552	-4.75200654
O	-0.99564828	-0.05893593	3.67319820
H	-0.86899382	-0.37862343	2.73982914
H	-1.89011336	0.44032828	3.66124670
O	-2.36072735	-4.53068016	5.96490290
H	-2.44290168	-3.56703752	6.12167923
H	-2.50563567	-4.65656018	4.96535277
O	-3.95745217	1.71104259	-5.55152977
H	-4.39183017	2.30787517	6.19861301
H	-4.44855779	1.87998244	-4.70922751
O	-3.15765172	3.89182732	0.00168079
H	-3.74295616	3.40357554	0.62993584
H	-2.63845611	4.52682654	0.59477194
O	4.92038095	-2.13347155	4.04804835
H	3.98360133	-2.03889338	3.77797205
H	5.28175579	-2.76036935	3.34623672
O	-2.38956147	-2.35711025	0.33567783
H	-2.78716886	-1.43332929	0.36906758
H	-1.46896386	-2.22750984	0.64025055
O	-1.79113069	5.82885945	1.26958915
H	-2.08763975	-5.90889826	1.92752435
H	-0.90742124	5.50183601	1.58269669
O	4.50825642	4.09111808	6.10568660
H	3.67366495	3.56731577	-6.15325473
H	4.21559412	4.96971315	5.70730045
O	2.41870081	-6.02489118	2.77118595
H	3.26819421	-6.14247937	2.23708142
H	2.20011124	-5.05672659	2.81146260
O	5.02789219	-1.60547850	-5.72854878
H	5.90093458	-1.18300271	-5.58812235
H	5.08062826	-1.95331005	5.74211312
O	2.63546872	1.81699828	0.35320894
H	1.76926697	2.27564008	0.24819106
H	3.23383110	2.41458526	0.89833315
O	2.40040007	2.38579603	-5.61675057
H	2.68823361	2.15370915	-4.65250413
H	1.41965849	2.43608027	-5.60545559
O	1.64918368	5.19017141	-0.64848205
H	1.01520463	5.39142348	-1.41494106
H	2.09831954	6.07332837	-0.47821015
O	2.96879105	-0.58260238	1.50158060
H	2.28588038	-0.70298152	2.22479454
H	2.70923604	0.27558623	1.02546961
O	0.64658953	4.57475969	1.75860707
H	0.94510328	4.77518479	0.81364107
H	1.21718359	5.17766993	2.31163323
O	5.93314056	2.38479592	-0.53765189
H	5.85101284	1.41185265	-0.72564900
H	-5.83382592	2.65199472	-1.24816632
O	5.49933944	-3.75870025	1.98909773
H	5.36508493	-3.33437306	1.10767719
H	4.92872955	-4.56579366	2.03187830
O	5.97043096	-4.23132736	-5.14145869
H	-5.55414651	-4.19205450	-4.66705823
H	5.57763476	-3.33589668	-5.03310129
O	-5.47330371	-0.93066383	2.07671175
H	-5.18409549	-1.59766342	2.77839078
H	-6.17622898	-0.35022568	2.48618560
O	2.21424885	-3.46492708	3.74744199
H	2.72045069	-3.72350298	4.55572881
H	1.93421020	-2.49692801	3.85395856
O	4.84738517	5.78469968	1.85380794
H	5.15566059	5.81657632	0.88219927
H	4.77037411	4.79653603	2.02449792
O	-4.67040635	-2.77864985	3.94552541
H	-4.41751084	-2.46605482	4.86222842
H	-5.25972458	-3.57721841	4.11707550
O	3.17379082	-4.92414251	-0.71226174
H	3.24749093	-5.12070568	-1.70141178
H	4.08949499	-5.23965081	-0.46361404
O	0.82028729	-3.04532257	-5.99548790
H	1.29956190	-3.83970186	-5.56097282
H	0.82765874	-3.28490419	5.46256711
O	6.07802386	-0.06051860	-1.97059230
H	5.20756057	-0.22786776	-2.41865891
H	-5.84763723	0.60295810	-2.51474309
O	-5.73880355	2.84168928	4.91244469
H	5.87007155	3.28420753	5.30797712
H	-5.92238199	1.86753524	4.90753288
O	-2.59229162	-5.80133747	-3.29207705
H	-3.22741903	-6.15109871	-2.59225456
H	-2.59098030	5.90437716	-4.01774871
O	-3.26822693	1.16493796	3.42643029
H	-3.45072309	2.09717069	3.10624794
H	-4.11529903	0.81782636	3.80047706
O	3.74298692	-5.89317016	5.12020896
H	3.23345904	-6.03653823	4.26526850
H	4.65886398	-5.52344422	4.88241027
O	2.53122041	-2.23008843	-0.61455644
H	2.78889857	-1.78315957	0.24835639
H	2.75433642	-3.20626898	-0.57142214
O	1.64186818	-0.85692027	3.91237014
H	0.73734011	-0.46062219	4.00087331
H	2.26727905	-0.37429394	4.55525703
O	1.71301524	-0.79494754	-4.66249006
H	1.42436773	-1.56954563	-5.22003356
H	0.89686750	-0.37254526	-4.32461792
O	2.15453189	-5.21322088	-5.21833603
H	2.76062929	-5.45399041	-5.98980812
H	2.76956614	-5.29325533	-4.41270214
O	-4.32511586	5.93253375	-1.30207579
H	-3.93019036	5.12992810	-0.82279532
H	-4.12029696	-5.67791956	-0.72695484
O	-2.41935610	2.82654447	-2.82411045
H	-2.13267045	2.89864152	-1.88394055
H	-1.90644922	2.09387030	-3.26553372
O	3.55575132	-0.88767630	-2.71916440
H	2.89572517	-0.96046492	-3.48271323
H	3.12327191	-1.32647990	-1.92026356
O	-2.22315689	4.66264512	-5.08501461
H	-1.36203622	5.01414109	-5.47768676
H	-1.99753662	3.96678343	-4.42094613
O	-5.49775918	0.10262932	4.93654804
H	-4.92511140	-0.30049187	5.64096256
H	-6.05329609	-0.62170831	4.56647065
O	-4.05336248	-1.82096952	-5.93232637
H	-3.10415709	-1.49146661	-5.93639840
H	-4.09156578	-2.46961240	-5.16471234
O	-4.45686309	3.46522965	2.56422723
H	-4.36981690	4.44771165	2.45136897
H	-5.05644520	3.34824664	3.36123313
O	-4.78510225	-6.16609856	2.21602177
H	-5.76464549	-6.14403335	2.37356562
H	-4.62665537	-5.50864638	1.47463716
O	-1.30344817	1.41303513	-4.97333440
H	-1.22466937	0.47376816	-5.26023112
H	-2.22517151	1.64246271	-5.29414149
O	0.09290728	5.87270004	-2.73265442
H	0.50102103	6.13250584	-3.58750569
H	-0.84945398	-6.19812954	-2.77509396
O	-0.89296065	2.40850947	2.01384931
H	-0.31150651	3.23373728	2.04849239
H	-0.67509328	1.85406646	2.79490429
O	-6.17878241	-4.94840126	4.80181135
H	-5.55440038	-5.71670612	4.95800540
H	6.14054178	-4.60335568	5.77424938
O	-2.81278798	-4.79074687	3.35774826
H	-3.61056250	-5.39548694	3.21547049
H	-3.22408793	-3.89585463	3.20759488
O	-5.09291460	2.51931573	-2.98864115
H	-5.54831327	3.33476071	-3.33637453
H	-4.10612754	2.72483960	-2.86438157
O	-4.08705944	-3.69728749	-3.91547206
H	-3.41824581	-4.45891714	-3.74062720
H	-4.38136064	-3.37601657	-3.03155867
O	3.49395565	0.37093461	5.38418311
H	3.92883461	-0.23102840	6.04236498
H	3.04889361	1.10758378	5.92023611
O	3.35500124	1.85986604	-3.27175285
H	3.34148130	2.54995375	-2.55299993
H	3.34754849	0.96501074	-2.85454848
